Version 4
SHEET 1 1908 1364
WIRE -608 -560 -656 -560
WIRE -576 -560 -608 -560
WIRE -832 -544 -1056 -544
WIRE -784 -544 -832 -544
WIRE -608 -528 -656 -528
WIRE -576 -528 -608 -528
WIRE -992 -288 -1072 -288
WIRE -880 -288 -928 -288
WIRE -688 -288 -800 -288
WIRE -352 -256 -480 -256
WIRE -304 -256 -352 -256
WIRE -192 -256 -224 -256
WIRE -144 -256 -192 -256
WIRE -96 -256 -144 -256
WIRE -1072 -240 -1072 -288
WIRE -96 -176 -96 -256
WIRE -688 -160 -688 -288
WIRE -480 -160 -480 -192
WIRE -480 -160 -528 -160
WIRE -192 -160 -192 -256
WIRE -1072 -144 -1072 -160
WIRE -352 -80 -352 -192
WIRE -352 -80 -528 -80
WIRE -480 -48 -480 -160
WIRE -352 -48 -352 -80
WIRE -688 -16 -688 -80
WIRE -352 16 -480 16
WIRE -192 16 -192 -96
WIRE -192 16 -352 16
WIRE -96 16 -96 -96
WIRE -96 16 -192 16
WIRE -96 48 -96 16
WIRE -864 288 -992 288
WIRE -672 288 -768 288
WIRE -592 288 -608 288
WIRE -352 288 -592 288
WIRE -176 288 -352 288
WIRE -32 288 -112 288
WIRE 80 288 32 288
WIRE 160 288 144 288
WIRE 320 288 272 288
WIRE 384 288 320 288
WIRE -992 304 -992 288
WIRE -640 368 -640 320
WIRE -352 384 -352 288
WIRE -288 384 -352 384
WIRE 0 384 0 320
WIRE 0 384 -224 384
WIRE 112 384 112 320
WIRE -640 464 -640 448
FLAG -1056 -416 0
FLAG -832 -544 ctrl
FLAG -1072 -144 0
FLAG -96 48 0
FLAG -688 -16 0
FLAG -144 -256 Vout
FLAG -640 464 0
FLAG 112 464 0
FLAG -592 288 Verr
FLAG -992 384 0
FLAG -608 -560 g1
FLAG -608 -528 g2
FLAG 320 288 ctrl
SYMBOL voltage -1056 -512 R0
SYMATTR InstName V4
SYMATTR Value 0.55
SYMBOL bv -1072 -256 R0
WINDOW 0 -106 46 Left 2
WINDOW 3 -347 82 Left 2
SYMATTR InstName B2
SYMATTR Value V=(V(g1)-V(g2))*0.5*{Vin}
SYMATTR Value2 tripdt=1u tripdv=1
SYMBOL ind2 -896 -304 M90
WINDOW 0 5 56 VBottom 2
WINDOW 3 32 56 VTop 2
SYMATTR InstName L4
SYMATTR Value {Lres}
SYMATTR Type ind
SYMBOL cap -928 -304 R90
WINDOW 0 0 32 VBottom 2
WINDOW 3 32 32 VTop 2
SYMATTR InstName C2
SYMATTR Value 300n
SYMBOL ind2 -704 -64 M180
WINDOW 0 -52 69 Left 2
WINDOW 3 -69 35 Left 2
SYMATTR InstName L5
SYMATTR Value 220µ
SYMATTR Type ind
SYMBOL ind2 -512 -64 R180
WINDOW 0 36 80 Left 2
WINDOW 3 36 40 Left 2
SYMATTR InstName L6
SYMATTR Value 266µ
SYMATTR Type ind
SYMBOL diode -464 -192 R180
WINDOW 0 24 64 Left 2
WINDOW 3 24 0 Left 2
SYMATTR InstName D5
SYMBOL res -112 -192 R0
SYMATTR InstName R2
SYMATTR Value 13
SYMBOL diode -464 16 R180
WINDOW 0 24 64 Left 2
WINDOW 3 24 0 Left 2
SYMATTR InstName D6
SYMBOL diode -336 -192 R180
WINDOW 0 24 64 Left 2
WINDOW 3 24 0 Left 2
SYMATTR InstName D7
SYMBOL diode -336 16 R180
WINDOW 0 24 64 Left 2
WINDOW 3 24 0 Left 2
SYMATTR InstName D8
SYMBOL cap -208 -160 R0
SYMATTR InstName C3
SYMATTR Value 880µ
SYMBOL res -320 -272 M90
WINDOW 0 0 56 VBottom 2
WINDOW 3 32 56 VTop 2
SYMATTR InstName R1
SYMATTR Value 1m
SYMBOL LTspiceControlLibrary\\TransferFunctions\\Proportional -272 416 R0
SYMATTR Value K=100u
SYMATTR InstName U3
SYMBOL LTspiceControlLibrary\\Math\\Operands\\add -16 320 R0
SYMATTR InstName U4
SYMBOL LTspiceControlLibrary\\Math\\Operands\\sub -656 320 R0
SYMATTR InstName U5
SYMBOL voltage -640 352 R0
WINDOW 3 24 44 Left 2
WINDOW 123 0 0 Left 0
WINDOW 39 0 0 Left 0
SYMATTR Value 20
SYMATTR InstName V1
SYMBOL voltage 112 368 R0
WINDOW 123 0 0 Left 0
WINDOW 39 0 0 Left 0
SYMATTR InstName V2
SYMATTR Value PWL(0 4 2m 0)
SYMBOL bv -992 288 R0
SYMATTR InstName B4
SYMATTR Value V=I(R1)
SYMATTR Value2 tripdt=1u tripdv=1
SYMBOL LTspiceControlLibrary\\TransferFunctions\\1stOrderLag -848 320 R0
SYMATTR Value K=1 T=15.9u
SYMATTR InstName U8
SYMBOL LTspiceControlLibrary\\Math\\Functions\\limit 176 320 R0
SYMATTR Value y=0.55 z=1.2
SYMATTR InstName U6
SYMBOL LTspiceControlLibrary\\Math\\Operands\\add 96 320 R0
SYMATTR InstName U7
SYMBOL LTspiceControlLibrary\\TransferFunctions\\LimitedIntegral -160 320 R0
WINDOW 3 -7 -72 Left 2
WINDOW 123 -52 -96 Left 2
SYMATTR Value T=2.8
SYMATTR Value2 Y0=0 Ymin=0.55 Ymax=1.2
SYMATTR InstName U10
SYMBOL ucc25600_VCO -720 -544 R0
SYMATTR InstName X1
TEXT 8 -216 Left 2 !.tran 0 500m 400m startup uic
TEXT 8 -184 Left 2 !.param Fs=55k
TEXT 8 -160 Left 2 !.param Ts=1/Fs
TEXT 8 -136 Left 2 !.param Vin=600
TEXT 16 -72 Left 2 !.model SW SW(Ron=10m Roff=1Meg Vt=1 Vh=0)
TEXT 8 -112 Left 2 !.param Lres=30u
TEXT -656 64 Left 2 ;Resonant Freq= 53kHz
TEXT 8 -40 Left 2 !.model D D(Ron=10m Roff=1Meg Vfwd=.4)
TEXT 24 -352 Left 2 !K2 L5 L6 1
TEXT 168 432 Left 2 ;SOFTSTART
TEXT -792 -624 Left 2 ;1V ~ 100kHz
