Version 4
SHEET 1 880 680
WIRE 96 112 32 112
WIRE 224 112 176 112
WIRE 384 112 304 112
WIRE 32 128 32 112
WIRE 224 128 224 112
WIRE 304 128 304 112
WIRE 384 128 384 112
WIRE 32 208 32 192
WIRE 224 208 32 208
WIRE 304 208 224 208
WIRE 384 208 304 208
WIRE 224 224 224 208
FLAG 224 224 0
FLAG 32 112 vc
SYMBOL cap 16 128 R0
SYMATTR InstName C1
SYMATTR Value 1760µ
SYMATTR SpiceLine IC=300
SYMBOL ind 80 96 M90
WINDOW 0 5 56 VBottom 2
WINDOW 3 32 56 VTop 2
SYMATTR InstName L1
SYMATTR Value 500n
SYMBOL res 208 112 R0
SYMATTR InstName R1
SYMATTR Value 80m
SYMBOL res 288 112 R0
SYMATTR InstName R2
SYMATTR Value 3m
SYMBOL res 368 112 R0
SYMATTR InstName R3
SYMATTR Value 3m
TEXT 14 218 Left 2 !.tran 0 100u 0 1n
TEXT 0 256 Left 2 !.ic V(vc)=300
TEXT 0 296 Left 2 !.ic I(L1)=0
